data_some_random_structure
_audit_creation_date               2009/02/28
_chemical_name_systematic          'foo bar'
_chemical_formula_structural       'Si4 Al2 O2 N6'
_chemical_formula_sum              'Si4 Al2 O2 N6'

_cell_length_a                     7.65900
_cell_length_b                     7.65900
_cell_length_c                     11.8240
_cell_angle_alpha                  90.
_cell_angle_beta                   90.
_cell_angle_gamma                  120.
_cell_formula_units_Z              6
_symmetry_space_group_name_H-M     'P 1'
_symmetry_Int_Tables_number        1

loop_
_atom_type_symbol
_atom_type_oxidation_number
Si4+   	4
N3-   	-3
Al3+   	3
O2-   	-2

loop_
_atom_site_label
_atom_site_type_symbol
_atom_site_fract_x
_atom_site_fract_y
_atom_site_fract_z

Al Al3+ 0.76868 0.17438 0.0625
Al Al3+ 0.17438 0.4057 0.1875
O O2- 0.02972 0.32953 0.06625
O O2- 0.32953 0.2998 0.19125
O2 O2- 0.33331 0.66669 0.0586
Al Al3+ 0.76868 0.17438 0.3125
Si1 Si4+ 0.76868 0.17438 0.5625
Al Al3+ 0.4057 0.23132 0.3125
Si1 Si4+ 0.4057 0.23132 0.5625
N1 N3- 0.02972 0.32953 0.31625
N2 N3- 0.33331 0.66669 0.3086

#End of data_some_random_structure

