# CIF file generated by openbabel 2.3.1, see http://openbabel.sf.net
data_I
_chemical_name_common ''
_cell_length_a 8.6375
_cell_length_b 8.6375
_cell_length_c 8.6375
_cell_angle_alpha 90
_cell_angle_beta 90
_cell_angle_gamma 90
_space_group_name_H-M_alt 'P 1'
_space_group_name_Hall 'P 1'
loop_
    _symmetry_equiv_pos_as_xyz
    'x,y,z'
loop_
    _atom_site_type_symbol
    _atom_site_label
    _atom_site_Cartn_x
    _atom_site_Cartn_y
    _atom_site_Cartn_z
     Ca   Ca1     1.01167    7.44625    3.06577
     Cl   Cl2     6.21474    6.33089    6.30211
     Cl   Cl3     1.39324    2.58796    6.90206
      O    O4     6.19286    6.59156    5.26066
      O    O5     6.51886    7.26773    6.95049
      O    O6     5.36370    5.87556    6.76776
      O    O7     7.05432    5.72905    6.62900
      O    O8     2.24061    3.07684    7.40591
      O    O9     1.54196    1.53754    7.01021
      O    O10     0.66248    2.89807    7.60444
      O    O11     1.01947    2.85931    5.91756
      O    O12     6.51153    1.24701    7.34226
      H    H13     7.47999    1.45793    7.49070
      H    H14     5.96684    2.06496    7.24902
      O    O15     6.91420    3.58947    5.27289
      H    H16     7.43936    2.79146    5.06398
      H    H17     6.84640    4.13248    4.49865
      O    O18     1.15455    1.99691    2.38149
      H    H19     1.19330    1.31128    3.10913
      H    H20     1.09588    2.89810    2.75117
      O    O21     4.31843    0.62525    4.52663
      H    H22     3.47547    0.39422    4.99359
      H    H23     5.04661    0.63233    5.15137
      O    O24     1.23971    4.11577    0.66846
      H    H25     2.15599    4.43998    0.60457
      H    H26     0.62516    4.88674    0.62926
      O    O27     6.91364    3.91839    0.52258
      H    H28     7.90311    3.90824    0.53066
      H    H29     6.63585    4.81407    0.38318
      O    O30     1.03176    5.13422    4.92884
      H    H31     1.94694    5.03709    5.21675
      H    H32     0.68964    5.96656    5.32044
      O    O33     0.94516    7.42952    7.24972
      H    H34     1.07134    7.29662    8.15250
      H    H35     0.81473    8.37910    7.06176
      O    O36     1.27801    7.07826    0.72090
      H    H37     2.27060    7.05162    0.73697
      H    H38     1.01448    8.02080    0.59788
      O    O39     4.40475    7.65834    4.27236
      H    H40     4.03535    7.85711    5.15041
      H    H41     3.68620    7.66637    3.62795
      O    O42     7.11410    7.04520    3.10430
      H    H43     7.18317    6.09510    3.37379
      H    H44     7.06158    7.58008    3.90329
      O    O45     3.78714    4.00177    4.48555
      H    H46     3.83102    3.07637    4.77414
      H    H47     3.91947    4.60022    5.13232
      O    O48     6.81813    0.73092    0.66247
      H    H49     7.78599    0.68823    0.66258
      H    H50     6.52695    1.66580    0.52118
      O    O51     1.08097    0.97989    0.50815
      H    H52     2.05705    0.93494    0.52934
      H    H53     0.93319    2.00039    0.40842
      O    O54     6.57881    6.97614    1.25313
      H    H55     7.53106    7.13524    1.22771
      H    H56     6.15951    7.85363    1.25365
      O    O57     4.14886    3.05699    2.16473
      H    H58     5.11879    3.12765    2.11873
      H    H59     3.77514    3.94365    1.94524
      O    O60     7.16281    1.62144    2.87970
      H    H61     7.83187    2.10761    2.45172
      H    H62     6.72280    2.29367    3.46790
